Circuit: * C:\Users\debab\OneDrive\Desktop\12.08.asc

Limiting rise time of source v2 to 5e-005
Limiting fall time of source v2 to 5e-005
Limiting rise time of source v1 to 5e-005
Limiting fall time of source v1 to 5e-005
Direct Newton iteration for .op point succeeded.

Date: Mon Aug 12 10:27:08 2024
Total elapsed time: 0.130 seconds.

tnom = 27
temp = 27
method = modified trap
totiter = 5477
traniter = 5474
tranpoints = 2723
accept = 2326
rejected = 397
matrix size = 8
fillins = 0
solver = Normal
Matrix Compiler1: 138 bytes object code size  0.1/0.1/[0.1]
Matrix Compiler2: 344 bytes object code size  0.1/0.2/[0.1]

